<?xml version="1.0" encoding="UTF-8"?>

<!-- generated on 2024-12-21 15:19:22 by Eclipse SUMO netedit Version 1.20.0
<configuration xmlns:xsi="http://www.w3.org/2001/XMLSchema-instance" xsi:noNamespaceSchemaLocation="http://sumo.dlr.de/xsd/neteditConfiguration.xsd">

    <input>
        <sumo-net-file value="D:\projects\KAConvoy\configs\highway.net.xml"/>
    </input>

    <output>
        <output-file value="D:\projects\KAConvoy\configs\highway.net.xml"/>
    </output>

    <processing>
        <geometry.min-radius.fix.railways value="false"/>
        <geometry.max-grade.fix value="false"/>
        <offset.disable-normalization value="true"/>
        <lefthand value="0"/>
    </processing>

    <junctions>
        <no-internal-links value="true"/>
        <no-turnarounds value="true"/>
        <junctions.corner-detail value="5"/>
        <junctions.limit-turn-speed value="5.50"/>
        <rectangular-lane-cut value="0"/>
    </junctions>

    <pedestrian>
        <walkingareas value="0"/>
    </pedestrian>

</configuration>
-->

<net version="1.20" junctionCornerDetail="5" limitTurnSpeed="5.50" xmlns:xsi="http://www.w3.org/2001/XMLSchema-instance" xsi:noNamespaceSchemaLocation="http://sumo.dlr.de/xsd/net_file.xsd">

    <location netOffset="0.00,0.00" convBoundary="0.00,10.80,1000.00,10.80" origBoundary="-10000000000.00,-10000000000.00,10000000000.00,10000000000.00" projParameter="!"/>

    <edge id="E0" from="J0" to="J1" priority="-1">
        <lane id="E0_0" index="0" speed="35.00" length="700.00" width="3.60" shape="0.00,1.80 700.00,1.80"/>
        <lane id="E0_1" index="1" speed="35.00" length="700.00" width="3.60" shape="0.00,5.40 700.00,5.40"/>
        <lane id="E0_2" index="2" speed="35.00" length="700.00" width="3.60" shape="0.00,9.00 700.00,9.00"/>
    </edge>
    <edge id="E1" from="J1" to="J2" priority="-1">
        <lane id="E1_0" index="0" speed="35.00" length="300.00" width="3.60" shape="700.00,1.80 1000.00,1.80"/>
        <lane id="E1_1" index="1" speed="35.00" length="300.00" width="3.60" shape="700.00,5.40 1000.00,5.40"/>
        <lane id="E1_2" index="2" speed="35.00" length="300.00" width="3.60" shape="700.00,9.00 1000.00,9.00"/>
    </edge>

    <junction id="J0" type="dead_end" x="0.00" y="10.80" incLanes="" intLanes="" shape="0.00,10.80 0.00,0.00"/>
    <junction id="J1" type="priority" x="700.00" y="10.80" incLanes="E0_0 E0_1 E0_2" intLanes="" shape="700.00,10.80 700.00,0.00 700.00,10.80">
        <request index="0" response="000" foes="000"/>
        <request index="1" response="000" foes="000"/>
        <request index="2" response="000" foes="000"/>
    </junction>
    <junction id="J2" type="dead_end" x="1000.00" y="10.80" incLanes="E1_0 E1_1 E1_2" intLanes="" shape="1000.00,0.00 1000.00,10.80"/>

    <connection from="E0" to="E1" fromLane="0" toLane="0" dir="s" state="M"/>
    <connection from="E0" to="E1" fromLane="1" toLane="1" dir="s" state="M"/>
    <connection from="E0" to="E1" fromLane="2" toLane="2" dir="s" state="M"/>

</net>
