<?xml version="1.0" encoding="UTF-8"?>

<!-- generated on 2025-04-07 15:39:32 by Eclipse SUMO netedit Version 1.20.0
<configuration xmlns:xsi="http://www.w3.org/2001/XMLSchema-instance" xsi:noNamespaceSchemaLocation="http://sumo.dlr.de/xsd/neteditConfiguration.xsd">

    <input>
        <sumo-net-file value="D:\projects\LoRAConvoy\configs\ring.net.xml"/>
    </input>

    <output>
        <output-file value="D:\projects\LoRAConvoy\configs\ring.net.xml"/>
    </output>

    <processing>
        <geometry.min-radius.fix.railways value="false"/>
        <geometry.max-grade.fix value="false"/>
        <offset.disable-normalization value="true"/>
        <lefthand value="0"/>
    </processing>

    <junctions>
        <no-turnarounds value="true"/>
        <junctions.corner-detail value="5"/>
        <junctions.limit-turn-speed value="5.50"/>
        <rectangular-lane-cut value="0"/>
    </junctions>

    <pedestrian>
        <walkingareas value="0"/>
    </pedestrian>

</configuration>
-->

<net version="1.20" junctionCornerDetail="5" limitTurnSpeed="5.50" xmlns:xsi="http://www.w3.org/2001/XMLSchema-instance" xsi:noNamespaceSchemaLocation="http://sumo.dlr.de/xsd/net_file.xsd">

    <location netOffset="0.00,0.00" convBoundary="-1250.00,-500.00,1250.00,500.00" origBoundary="-1250.00,-500.00,1250.00,500.00" projParameter="!"/>

    <edge id=":0_0" function="internal">
        <lane id=":0_0_0" index="0" speed="50.00" length="0.28" width="3.60" shape="749.79,491.00 749.98,491.00"/>
        <lane id=":0_0_1" index="1" speed="50.00" length="0.28" width="3.60" shape="749.79,494.60 750.07,494.60"/>
        <lane id=":0_0_2" index="2" speed="50.00" length="0.28" width="3.60" shape="749.79,498.20 750.16,498.20"/>
    </edge>
    <edge id=":1_0" function="internal">
        <lane id=":1_0_0" index="0" speed="50.00" length="0.29" width="3.60" shape="775.65,490.33 775.75,490.33"/>
        <lane id=":1_0_1" index="1" speed="50.00" length="0.29" width="3.60" shape="775.74,493.93 776.03,493.91"/>
        <lane id=":1_0_2" index="2" speed="50.00" length="0.29" width="3.60" shape="775.84,497.53 776.31,497.50"/>
    </edge>
    <edge id=":10_0" function="internal">
        <lane id=":10_0_0" index="0" speed="50.00" length="0.28" width="3.60" shape="995.46,425.24 995.54,425.19"/>
        <lane id=":10_0_1" index="1" speed="50.00" length="0.28" width="3.60" shape="997.18,428.40 997.42,428.26"/>
        <lane id=":10_0_2" index="2" speed="50.00" length="0.28" width="3.60" shape="998.89,431.56 999.30,431.33"/>
    </edge>
    <edge id=":100_0" function="internal">
        <lane id=":100_0_0" index="0" speed="50.00" length="0.28" width="3.60" shape="-1187.50,222.87 -1187.46,222.95"/>
        <lane id=":100_0_1" index="1" speed="50.00" length="0.28" width="3.60" shape="-1190.75,224.42 -1190.62,224.67"/>
        <lane id=":100_0_2" index="2" speed="50.00" length="0.28" width="3.60" shape="-1194.00,225.97 -1193.78,226.39"/>
    </edge>
    <edge id=":101_0" function="internal">
        <lane id=":101_0_0" index="0" speed="50.00" length="0.28" width="3.60" shape="-1175.24,245.46 -1175.19,245.54"/>
        <lane id=":101_0_1" index="1" speed="50.00" length="0.28" width="3.60" shape="-1178.40,247.18 -1178.26,247.42"/>
        <lane id=":101_0_2" index="2" speed="50.00" length="0.28" width="3.60" shape="-1181.56,248.89 -1181.33,249.30"/>
    </edge>
    <edge id=":102_0" function="internal">
        <lane id=":102_0_0" index="0" speed="50.00" length="0.28" width="3.60" shape="-1161.81,267.38 -1161.76,267.46"/>
        <lane id=":102_0_1" index="1" speed="50.00" length="0.28" width="3.60" shape="-1164.88,269.26 -1164.73,269.50"/>
        <lane id=":102_0_2" index="2" speed="50.00" length="0.28" width="3.60" shape="-1167.95,271.14 -1167.70,271.54"/>
    </edge>
    <edge id=":103_0" function="internal">
        <lane id=":103_0_0" index="0" speed="50.00" length="0.28" width="3.60" shape="-1147.25,288.56 -1147.20,288.63"/>
        <lane id=":103_0_1" index="1" speed="50.00" length="0.28" width="3.60" shape="-1150.22,290.60 -1150.05,290.83"/>
        <lane id=":103_0_2" index="2" speed="50.00" length="0.28" width="3.60" shape="-1153.19,292.64 -1152.91,293.02"/>
    </edge>
    <edge id=":104_0" function="internal">
        <lane id=":104_0_0" index="0" speed="50.00" length="0.28" width="3.60" shape="-1131.60,308.96 -1131.54,309.03"/>
        <lane id=":104_0_1" index="1" speed="50.00" length="0.28" width="3.60" shape="-1134.46,311.15 -1134.28,311.37"/>
        <lane id=":104_0_2" index="2" speed="50.00" length="0.28" width="3.60" shape="-1137.31,313.34 -1137.02,313.71"/>
    </edge>
    <edge id=":105_0" function="internal">
        <lane id=":105_0_0" index="0" speed="50.00" length="0.28" width="3.60" shape="-1114.91,328.51 -1114.85,328.58"/>
        <lane id=":105_0_1" index="1" speed="50.00" length="0.28" width="3.60" shape="-1117.65,330.85 -1117.46,331.06"/>
        <lane id=":105_0_2" index="2" speed="50.00" length="0.28" width="3.60" shape="-1120.39,333.18 -1120.07,333.54"/>
    </edge>
    <edge id=":106_0" function="internal">
        <lane id=":106_0_0" index="0" speed="50.00" length="0.28" width="3.60" shape="-1097.22,347.15 -1097.15,347.22"/>
        <lane id=":106_0_1" index="1" speed="50.00" length="0.28" width="3.60" shape="-1099.83,349.63 -1099.63,349.83"/>
        <lane id=":106_0_2" index="2" speed="50.00" length="0.28" width="3.60" shape="-1102.44,352.11 -1102.11,352.44"/>
    </edge>
    <edge id=":107_0" function="internal">
        <lane id=":107_0_0" index="0" speed="50.00" length="0.28" width="3.60" shape="-1078.58,364.85 -1078.51,364.91"/>
        <lane id=":107_0_1" index="1" speed="50.00" length="0.28" width="3.60" shape="-1081.06,367.46 -1080.85,367.65"/>
        <lane id=":107_0_2" index="2" speed="50.00" length="0.28" width="3.60" shape="-1083.54,370.07 -1083.18,370.39"/>
    </edge>
    <edge id=":108_0" function="internal">
        <lane id=":108_0_0" index="0" speed="50.00" length="0.28" width="3.60" shape="-1059.03,381.54 -1058.96,381.60"/>
        <lane id=":108_0_1" index="1" speed="50.00" length="0.28" width="3.60" shape="-1061.37,384.28 -1061.15,384.46"/>
        <lane id=":108_0_2" index="2" speed="50.00" length="0.28" width="3.60" shape="-1063.71,387.02 -1063.34,387.31"/>
    </edge>
    <edge id=":109_0" function="internal">
        <lane id=":109_0_0" index="0" speed="50.00" length="0.28" width="3.60" shape="-1038.63,397.20 -1038.56,397.25"/>
        <lane id=":109_0_1" index="1" speed="50.00" length="0.28" width="3.60" shape="-1040.83,400.05 -1040.60,400.22"/>
        <lane id=":109_0_2" index="2" speed="50.00" length="0.28" width="3.60" shape="-1043.02,402.91 -1042.64,403.19"/>
    </edge>
    <edge id=":11_0" function="internal">
        <lane id=":11_0_0" index="0" speed="50.00" length="0.28" width="3.60" shape="1017.38,411.81 1017.46,411.76"/>
        <lane id=":11_0_1" index="1" speed="50.00" length="0.28" width="3.60" shape="1019.26,414.88 1019.50,414.73"/>
        <lane id=":11_0_2" index="2" speed="50.00" length="0.28" width="3.60" shape="1021.14,417.95 1021.54,417.70"/>
    </edge>
    <edge id=":110_0" function="internal">
        <lane id=":110_0_0" index="0" speed="50.00" length="0.28" width="3.60" shape="-1017.46,411.76 -1017.38,411.81"/>
        <lane id=":110_0_1" index="1" speed="50.00" length="0.28" width="3.60" shape="-1019.50,414.73 -1019.26,414.88"/>
        <lane id=":110_0_2" index="2" speed="50.00" length="0.28" width="3.60" shape="-1021.54,417.70 -1021.14,417.95"/>
    </edge>
    <edge id=":111_0" function="internal">
        <lane id=":111_0_0" index="0" speed="50.00" length="0.28" width="3.60" shape="-995.54,425.19 -995.46,425.24"/>
        <lane id=":111_0_1" index="1" speed="50.00" length="0.28" width="3.60" shape="-997.42,428.26 -997.18,428.40"/>
        <lane id=":111_0_2" index="2" speed="50.00" length="0.28" width="3.60" shape="-999.30,431.33 -998.89,431.56"/>
    </edge>
    <edge id=":112_0" function="internal">
        <lane id=":112_0_0" index="0" speed="50.00" length="0.28" width="3.60" shape="-972.95,437.46 -972.87,437.50"/>
        <lane id=":112_0_1" index="1" speed="50.00" length="0.28" width="3.60" shape="-974.67,440.62 -974.42,440.75"/>
        <lane id=":112_0_2" index="2" speed="50.00" length="0.28" width="3.60" shape="-976.39,443.78 -975.97,444.00"/>
    </edge>
    <edge id=":113_0" function="internal">
        <lane id=":113_0_0" index="0" speed="50.00" length="0.28" width="3.60" shape="-949.75,448.52 -949.66,448.56"/>
        <lane id=":113_0_1" index="1" speed="50.00" length="0.28" width="3.60" shape="-951.30,451.77 -951.04,451.89"/>
        <lane id=":113_0_2" index="2" speed="50.00" length="0.28" width="3.60" shape="-952.85,455.02 -952.42,455.22"/>
    </edge>
    <edge id=":114_0" function="internal">
        <lane id=":114_0_0" index="0" speed="50.00" length="0.28" width="3.60" shape="-926.00,458.37 -925.91,458.40"/>
        <lane id=":114_0_1" index="1" speed="50.00" length="0.28" width="3.60" shape="-927.37,461.69 -927.11,461.79"/>
        <lane id=":114_0_2" index="2" speed="50.00" length="0.28" width="3.60" shape="-928.75,465.02 -928.31,465.19"/>
    </edge>
    <edge id=":115_0" function="internal">
        <lane id=":115_0_0" index="0" speed="50.00" length="0.28" width="3.60" shape="-901.77,466.95 -901.68,466.98"/>
        <lane id=":115_0_1" index="1" speed="50.00" length="0.28" width="3.60" shape="-902.97,470.34 -902.70,470.43"/>
        <lane id=":115_0_2" index="2" speed="50.00" length="0.28" width="3.60" shape="-904.18,473.74 -903.73,473.88"/>
    </edge>
    <edge id=":116_0" function="internal">
        <lane id=":116_0_0" index="0" speed="50.00" length="0.28" width="3.60" shape="-877.13,474.25 -877.03,474.27"/>
        <lane id=":116_0_1" index="1" speed="50.00" length="0.28" width="3.60" shape="-878.15,477.70 -877.88,477.77"/>
        <lane id=":116_0_2" index="2" speed="50.00" length="0.28" width="3.60" shape="-879.17,481.15 -878.72,481.28"/>
    </edge>
    <edge id=":117_0" function="internal">
        <lane id=":117_0_0" index="0" speed="50.00" length="0.28" width="3.60" shape="-852.13,480.25 -852.04,480.27"/>
        <lane id=":117_0_1" index="1" speed="50.00" length="0.28" width="3.60" shape="-852.97,483.75 -852.70,483.81"/>
        <lane id=":117_0_2" index="2" speed="50.00" length="0.28" width="3.60" shape="-853.81,487.25 -853.35,487.35"/>
    </edge>
    <edge id=":118_0" function="internal">
        <lane id=":118_0_0" index="0" speed="50.00" length="0.28" width="3.60" shape="-826.86,484.94 -826.76,484.95"/>
        <lane id=":118_0_1" index="1" speed="50.00" length="0.28" width="3.60" shape="-827.51,488.48 -827.23,488.52"/>
        <lane id=":118_0_2" index="2" speed="50.00" length="0.28" width="3.60" shape="-828.17,492.02 -827.71,492.09"/>
    </edge>
    <edge id=":119_0" function="internal">
        <lane id=":119_0_0" index="0" speed="50.00" length="0.28" width="3.60" shape="-801.36,488.30 -801.27,488.31"/>
        <lane id=":119_0_1" index="1" speed="50.00" length="0.28" width="3.60" shape="-801.83,491.87 -801.55,491.90"/>
        <lane id=":119_0_2" index="2" speed="50.00" length="0.28" width="3.60" shape="-802.30,495.44 -801.84,495.49"/>
    </edge>
    <edge id=":12_0" function="internal">
        <lane id=":12_0_0" index="0" speed="50.00" length="0.28" width="3.60" shape="1038.56,397.25 1038.63,397.20"/>
        <lane id=":12_0_1" index="1" speed="50.00" length="0.28" width="3.60" shape="1040.60,400.22 1040.83,400.05"/>
        <lane id=":12_0_2" index="2" speed="50.00" length="0.28" width="3.60" shape="1042.64,403.19 1043.02,402.91"/>
    </edge>
    <edge id=":120_0" function="internal">
        <lane id=":120_0_0" index="0" speed="50.00" length="0.29" width="3.60" shape="-775.75,490.33 -775.65,490.33"/>
        <lane id=":120_0_1" index="1" speed="50.00" length="0.29" width="3.60" shape="-776.03,493.91 -775.74,493.93"/>
        <lane id=":120_0_2" index="2" speed="50.00" length="0.29" width="3.60" shape="-776.31,497.50 -775.84,497.53"/>
    </edge>
    <edge id=":121_0" function="internal">
        <lane id=":121_0_0" index="0" speed="50.00" length="0.28" width="3.60" shape="-749.98,491.00 -749.79,491.00"/>
        <lane id=":121_0_1" index="1" speed="50.00" length="0.28" width="3.60" shape="-750.07,494.60 -749.79,494.60"/>
        <lane id=":121_0_2" index="2" speed="50.00" length="0.28" width="3.60" shape="-750.16,498.20 -749.79,498.20"/>
    </edge>
    <edge id=":13_0" function="internal">
        <lane id=":13_0_0" index="0" speed="50.00" length="0.28" width="3.60" shape="1058.96,381.60 1059.03,381.54"/>
        <lane id=":13_0_1" index="1" speed="50.00" length="0.28" width="3.60" shape="1061.15,384.46 1061.37,384.28"/>
        <lane id=":13_0_2" index="2" speed="50.00" length="0.28" width="3.60" shape="1063.34,387.31 1063.71,387.02"/>
    </edge>
    <edge id=":14_0" function="internal">
        <lane id=":14_0_0" index="0" speed="50.00" length="0.28" width="3.60" shape="1078.51,364.91 1078.58,364.85"/>
        <lane id=":14_0_1" index="1" speed="50.00" length="0.28" width="3.60" shape="1080.85,367.65 1081.06,367.46"/>
        <lane id=":14_0_2" index="2" speed="50.00" length="0.28" width="3.60" shape="1083.18,370.39 1083.54,370.07"/>
    </edge>
    <edge id=":15_0" function="internal">
        <lane id=":15_0_0" index="0" speed="50.00" length="0.28" width="3.60" shape="1097.15,347.22 1097.22,347.15"/>
        <lane id=":15_0_1" index="1" speed="50.00" length="0.28" width="3.60" shape="1099.63,349.83 1099.83,349.63"/>
        <lane id=":15_0_2" index="2" speed="50.00" length="0.28" width="3.60" shape="1102.11,352.44 1102.44,352.11"/>
    </edge>
    <edge id=":16_0" function="internal">
        <lane id=":16_0_0" index="0" speed="50.00" length="0.28" width="3.60" shape="1114.85,328.58 1114.91,328.51"/>
        <lane id=":16_0_1" index="1" speed="50.00" length="0.28" width="3.60" shape="1117.46,331.06 1117.65,330.85"/>
        <lane id=":16_0_2" index="2" speed="50.00" length="0.28" width="3.60" shape="1120.07,333.54 1120.39,333.18"/>
    </edge>
    <edge id=":17_0" function="internal">
        <lane id=":17_0_0" index="0" speed="50.00" length="0.28" width="3.60" shape="1131.54,309.03 1131.60,308.96"/>
        <lane id=":17_0_1" index="1" speed="50.00" length="0.28" width="3.60" shape="1134.28,311.37 1134.46,311.15"/>
        <lane id=":17_0_2" index="2" speed="50.00" length="0.28" width="3.60" shape="1137.02,313.71 1137.31,313.34"/>
    </edge>
    <edge id=":18_0" function="internal">
        <lane id=":18_0_0" index="0" speed="50.00" length="0.28" width="3.60" shape="1147.20,288.63 1147.25,288.56"/>
        <lane id=":18_0_1" index="1" speed="50.00" length="0.28" width="3.60" shape="1150.05,290.83 1150.22,290.60"/>
        <lane id=":18_0_2" index="2" speed="50.00" length="0.28" width="3.60" shape="1152.91,293.02 1153.19,292.64"/>
    </edge>
    <edge id=":19_0" function="internal">
        <lane id=":19_0_0" index="0" speed="50.00" length="0.28" width="3.60" shape="1161.76,267.46 1161.81,267.38"/>
        <lane id=":19_0_1" index="1" speed="50.00" length="0.28" width="3.60" shape="1164.73,269.50 1164.88,269.26"/>
        <lane id=":19_0_2" index="2" speed="50.00" length="0.28" width="3.60" shape="1167.70,271.54 1167.95,271.14"/>
    </edge>
    <edge id=":2_0" function="internal">
        <lane id=":2_0_0" index="0" speed="50.00" length="0.28" width="3.60" shape="801.27,488.31 801.36,488.30"/>
        <lane id=":2_0_1" index="1" speed="50.00" length="0.28" width="3.60" shape="801.55,491.90 801.83,491.87"/>
        <lane id=":2_0_2" index="2" speed="50.00" length="0.28" width="3.60" shape="801.84,495.49 802.30,495.44"/>
    </edge>
    <edge id=":20_0" function="internal">
        <lane id=":20_0_0" index="0" speed="50.00" length="0.28" width="3.60" shape="1175.19,245.54 1175.24,245.46"/>
        <lane id=":20_0_1" index="1" speed="50.00" length="0.28" width="3.60" shape="1178.26,247.42 1178.40,247.18"/>
        <lane id=":20_0_2" index="2" speed="50.00" length="0.28" width="3.60" shape="1181.33,249.30 1181.56,248.89"/>
    </edge>
    <edge id=":21_0" function="internal">
        <lane id=":21_0_0" index="0" speed="50.00" length="0.28" width="3.60" shape="1187.46,222.95 1187.50,222.87"/>
        <lane id=":21_0_1" index="1" speed="50.00" length="0.28" width="3.60" shape="1190.62,224.67 1190.75,224.42"/>
        <lane id=":21_0_2" index="2" speed="50.00" length="0.28" width="3.60" shape="1193.78,226.39 1194.00,225.97"/>
    </edge>
    <edge id=":22_0" function="internal">
        <lane id=":22_0_0" index="0" speed="50.00" length="0.28" width="3.60" shape="1198.52,199.75 1198.56,199.66"/>
        <lane id=":22_0_1" index="1" speed="50.00" length="0.28" width="3.60" shape="1201.77,201.30 1201.89,201.04"/>
        <lane id=":22_0_2" index="2" speed="50.00" length="0.28" width="3.60" shape="1205.02,202.85 1205.22,202.42"/>
    </edge>
    <edge id=":23_0" function="internal">
        <lane id=":23_0_0" index="0" speed="50.00" length="0.28" width="3.60" shape="1208.37,176.00 1208.40,175.91"/>
        <lane id=":23_0_1" index="1" speed="50.00" length="0.28" width="3.60" shape="1211.69,177.37 1211.79,177.11"/>
        <lane id=":23_0_2" index="2" speed="50.00" length="0.28" width="3.60" shape="1215.02,178.75 1215.19,178.31"/>
    </edge>
    <edge id=":24_0" function="internal">
        <lane id=":24_0_0" index="0" speed="50.00" length="0.28" width="3.60" shape="1216.95,151.77 1216.98,151.68"/>
        <lane id=":24_0_1" index="1" speed="50.00" length="0.28" width="3.60" shape="1220.34,152.97 1220.43,152.70"/>
        <lane id=":24_0_2" index="2" speed="50.00" length="0.28" width="3.60" shape="1223.74,154.18 1223.88,153.73"/>
    </edge>
    <edge id=":25_0" function="internal">
        <lane id=":25_0_0" index="0" speed="50.00" length="0.28" width="3.60" shape="1224.25,127.13 1224.27,127.03"/>
        <lane id=":25_0_1" index="1" speed="50.00" length="0.28" width="3.60" shape="1227.70,128.15 1227.77,127.88"/>
        <lane id=":25_0_2" index="2" speed="50.00" length="0.28" width="3.60" shape="1231.15,129.17 1231.28,128.72"/>
    </edge>
    <edge id=":26_0" function="internal">
        <lane id=":26_0_0" index="0" speed="50.00" length="0.28" width="3.60" shape="1230.25,102.13 1230.27,102.04"/>
        <lane id=":26_0_1" index="1" speed="50.00" length="0.28" width="3.60" shape="1233.75,102.97 1233.81,102.70"/>
        <lane id=":26_0_2" index="2" speed="50.00" length="0.28" width="3.60" shape="1237.25,103.81 1237.35,103.35"/>
    </edge>
    <edge id=":27_0" function="internal">
        <lane id=":27_0_0" index="0" speed="50.00" length="0.28" width="3.60" shape="1234.94,76.86 1234.95,76.76"/>
        <lane id=":27_0_1" index="1" speed="50.00" length="0.28" width="3.60" shape="1238.48,77.51 1238.52,77.23"/>
        <lane id=":27_0_2" index="2" speed="50.00" length="0.28" width="3.60" shape="1242.02,78.17 1242.09,77.71"/>
    </edge>
    <edge id=":28_0" function="internal">
        <lane id=":28_0_0" index="0" speed="50.00" length="0.28" width="3.60" shape="1238.30,51.36 1238.31,51.27"/>
        <lane id=":28_0_1" index="1" speed="50.00" length="0.28" width="3.60" shape="1241.87,51.83 1241.90,51.55"/>
        <lane id=":28_0_2" index="2" speed="50.00" length="0.28" width="3.60" shape="1245.44,52.30 1245.49,51.84"/>
    </edge>
    <edge id=":29_0" function="internal">
        <lane id=":29_0_0" index="0" speed="50.00" length="0.29" width="3.60" shape="1240.33,25.75 1240.33,25.65"/>
        <lane id=":29_0_1" index="1" speed="50.00" length="0.29" width="3.60" shape="1243.91,26.03 1243.93,25.74"/>
        <lane id=":29_0_2" index="2" speed="50.00" length="0.29" width="3.60" shape="1247.50,26.31 1247.53,25.84"/>
    </edge>
    <edge id=":3_0" function="internal">
        <lane id=":3_0_0" index="0" speed="50.00" length="0.28" width="3.60" shape="826.76,484.95 826.86,484.94"/>
        <lane id=":3_0_1" index="1" speed="50.00" length="0.28" width="3.60" shape="827.23,488.52 827.51,488.48"/>
        <lane id=":3_0_2" index="2" speed="50.00" length="0.28" width="3.60" shape="827.71,492.09 828.17,492.02"/>
    </edge>
    <edge id=":30_0" function="internal">
        <lane id=":30_0_0" index="0" speed="50.00" length="0.28" width="3.60" shape="1241.00,0.05 1241.00,-0.05"/>
        <lane id=":30_0_1" index="1" speed="50.00" length="0.28" width="3.60" shape="1244.59,0.14 1244.59,-0.14"/>
        <lane id=":30_0_2" index="2" speed="50.00" length="0.28" width="3.60" shape="1248.19,0.23 1248.19,-0.23"/>
    </edge>
    <edge id=":31_0" function="internal">
        <lane id=":31_0_0" index="0" speed="50.00" length="0.29" width="3.60" shape="1240.33,-25.65 1240.33,-25.75"/>
        <lane id=":31_0_1" index="1" speed="50.00" length="0.29" width="3.60" shape="1243.93,-25.74 1243.91,-26.03"/>
        <lane id=":31_0_2" index="2" speed="50.00" length="0.29" width="3.60" shape="1247.53,-25.84 1247.50,-26.31"/>
    </edge>
    <edge id=":32_0" function="internal">
        <lane id=":32_0_0" index="0" speed="50.00" length="0.28" width="3.60" shape="1238.31,-51.27 1238.30,-51.36"/>
        <lane id=":32_0_1" index="1" speed="50.00" length="0.28" width="3.60" shape="1241.90,-51.55 1241.87,-51.83"/>
        <lane id=":32_0_2" index="2" speed="50.00" length="0.28" width="3.60" shape="1245.49,-51.84 1245.44,-52.30"/>
    </edge>
    <edge id=":33_0" function="internal">
        <lane id=":33_0_0" index="0" speed="50.00" length="0.28" width="3.60" shape="1234.95,-76.76 1234.94,-76.86"/>
        <lane id=":33_0_1" index="1" speed="50.00" length="0.28" width="3.60" shape="1238.52,-77.23 1238.48,-77.51"/>
        <lane id=":33_0_2" index="2" speed="50.00" length="0.28" width="3.60" shape="1242.09,-77.71 1242.02,-78.17"/>
    </edge>
    <edge id=":34_0" function="internal">
        <lane id=":34_0_0" index="0" speed="50.00" length="0.28" width="3.60" shape="1230.27,-102.04 1230.25,-102.13"/>
        <lane id=":34_0_1" index="1" speed="50.00" length="0.28" width="3.60" shape="1233.81,-102.70 1233.75,-102.97"/>
        <lane id=":34_0_2" index="2" speed="50.00" length="0.28" width="3.60" shape="1237.35,-103.35 1237.25,-103.81"/>
    </edge>
    <edge id=":35_0" function="internal">
        <lane id=":35_0_0" index="0" speed="50.00" length="0.28" width="3.60" shape="1224.27,-127.03 1224.25,-127.13"/>
        <lane id=":35_0_1" index="1" speed="50.00" length="0.28" width="3.60" shape="1227.77,-127.88 1227.70,-128.15"/>
        <lane id=":35_0_2" index="2" speed="50.00" length="0.28" width="3.60" shape="1231.28,-128.72 1231.15,-129.17"/>
    </edge>
    <edge id=":36_0" function="internal">
        <lane id=":36_0_0" index="0" speed="50.00" length="0.28" width="3.60" shape="1216.98,-151.68 1216.95,-151.77"/>
        <lane id=":36_0_1" index="1" speed="50.00" length="0.28" width="3.60" shape="1220.43,-152.70 1220.34,-152.97"/>
        <lane id=":36_0_2" index="2" speed="50.00" length="0.28" width="3.60" shape="1223.88,-153.73 1223.74,-154.18"/>
    </edge>
    <edge id=":37_0" function="internal">
        <lane id=":37_0_0" index="0" speed="50.00" length="0.28" width="3.60" shape="1208.40,-175.91 1208.37,-176.00"/>
        <lane id=":37_0_1" index="1" speed="50.00" length="0.28" width="3.60" shape="1211.79,-177.11 1211.69,-177.37"/>
        <lane id=":37_0_2" index="2" speed="50.00" length="0.28" width="3.60" shape="1215.19,-178.31 1215.02,-178.75"/>
    </edge>
    <edge id=":38_0" function="internal">
        <lane id=":38_0_0" index="0" speed="50.00" length="0.28" width="3.60" shape="1198.56,-199.66 1198.52,-199.75"/>
        <lane id=":38_0_1" index="1" speed="50.00" length="0.28" width="3.60" shape="1201.89,-201.04 1201.77,-201.30"/>
        <lane id=":38_0_2" index="2" speed="50.00" length="0.28" width="3.60" shape="1205.22,-202.42 1205.02,-202.85"/>
    </edge>
    <edge id=":39_0" function="internal">
        <lane id=":39_0_0" index="0" speed="50.00" length="0.28" width="3.60" shape="1187.50,-222.87 1187.46,-222.95"/>
        <lane id=":39_0_1" index="1" speed="50.00" length="0.28" width="3.60" shape="1190.75,-224.42 1190.62,-224.67"/>
        <lane id=":39_0_2" index="2" speed="50.00" length="0.28" width="3.60" shape="1194.00,-225.97 1193.78,-226.39"/>
    </edge>
    <edge id=":4_0" function="internal">
        <lane id=":4_0_0" index="0" speed="50.00" length="0.28" width="3.60" shape="852.04,480.27 852.13,480.25"/>
        <lane id=":4_0_1" index="1" speed="50.00" length="0.28" width="3.60" shape="852.70,483.81 852.97,483.75"/>
        <lane id=":4_0_2" index="2" speed="50.00" length="0.28" width="3.60" shape="853.35,487.35 853.81,487.25"/>
    </edge>
    <edge id=":40_0" function="internal">
        <lane id=":40_0_0" index="0" speed="50.00" length="0.28" width="3.60" shape="1175.24,-245.46 1175.19,-245.54"/>
        <lane id=":40_0_1" index="1" speed="50.00" length="0.28" width="3.60" shape="1178.40,-247.18 1178.26,-247.42"/>
        <lane id=":40_0_2" index="2" speed="50.00" length="0.28" width="3.60" shape="1181.56,-248.89 1181.33,-249.30"/>
    </edge>
    <edge id=":41_0" function="internal">
        <lane id=":41_0_0" index="0" speed="50.00" length="0.28" width="3.60" shape="1161.81,-267.38 1161.76,-267.46"/>
        <lane id=":41_0_1" index="1" speed="50.00" length="0.28" width="3.60" shape="1164.88,-269.26 1164.73,-269.50"/>
        <lane id=":41_0_2" index="2" speed="50.00" length="0.28" width="3.60" shape="1167.95,-271.14 1167.70,-271.54"/>
    </edge>
    <edge id=":42_0" function="internal">
        <lane id=":42_0_0" index="0" speed="50.00" length="0.28" width="3.60" shape="1147.25,-288.56 1147.20,-288.63"/>
        <lane id=":42_0_1" index="1" speed="50.00" length="0.28" width="3.60" shape="1150.22,-290.60 1150.05,-290.83"/>
        <lane id=":42_0_2" index="2" speed="50.00" length="0.28" width="3.60" shape="1153.19,-292.64 1152.91,-293.02"/>
    </edge>
    <edge id=":43_0" function="internal">
        <lane id=":43_0_0" index="0" speed="50.00" length="0.28" width="3.60" shape="1131.60,-308.96 1131.54,-309.03"/>
        <lane id=":43_0_1" index="1" speed="50.00" length="0.28" width="3.60" shape="1134.46,-311.15 1134.28,-311.37"/>
        <lane id=":43_0_2" index="2" speed="50.00" length="0.28" width="3.60" shape="1137.31,-313.34 1137.02,-313.71"/>
    </edge>
    <edge id=":44_0" function="internal">
        <lane id=":44_0_0" index="0" speed="50.00" length="0.28" width="3.60" shape="1114.91,-328.51 1114.85,-328.58"/>
        <lane id=":44_0_1" index="1" speed="50.00" length="0.28" width="3.60" shape="1117.65,-330.85 1117.46,-331.06"/>
        <lane id=":44_0_2" index="2" speed="50.00" length="0.28" width="3.60" shape="1120.39,-333.18 1120.07,-333.54"/>
    </edge>
    <edge id=":45_0" function="internal">
        <lane id=":45_0_0" index="0" speed="50.00" length="0.28" width="3.60" shape="1097.22,-347.15 1097.15,-347.22"/>
        <lane id=":45_0_1" index="1" speed="50.00" length="0.28" width="3.60" shape="1099.83,-349.63 1099.63,-349.83"/>
        <lane id=":45_0_2" index="2" speed="50.00" length="0.28" width="3.60" shape="1102.44,-352.11 1102.11,-352.44"/>
    </edge>
    <edge id=":46_0" function="internal">
        <lane id=":46_0_0" index="0" speed="50.00" length="0.28" width="3.60" shape="1078.58,-364.85 1078.51,-364.91"/>
        <lane id=":46_0_1" index="1" speed="50.00" length="0.28" width="3.60" shape="1081.06,-367.46 1080.85,-367.65"/>
        <lane id=":46_0_2" index="2" speed="50.00" length="0.28" width="3.60" shape="1083.54,-370.07 1083.18,-370.39"/>
    </edge>
    <edge id=":47_0" function="internal">
        <lane id=":47_0_0" index="0" speed="50.00" length="0.28" width="3.60" shape="1059.03,-381.54 1058.96,-381.60"/>
        <lane id=":47_0_1" index="1" speed="50.00" length="0.28" width="3.60" shape="1061.37,-384.28 1061.15,-384.46"/>
        <lane id=":47_0_2" index="2" speed="50.00" length="0.28" width="3.60" shape="1063.71,-387.02 1063.34,-387.31"/>
    </edge>
    <edge id=":48_0" function="internal">
        <lane id=":48_0_0" index="0" speed="50.00" length="0.28" width="3.60" shape="1038.63,-397.20 1038.56,-397.25"/>
        <lane id=":48_0_1" index="1" speed="50.00" length="0.28" width="3.60" shape="1040.83,-400.05 1040.60,-400.22"/>
        <lane id=":48_0_2" index="2" speed="50.00" length="0.28" width="3.60" shape="1043.02,-402.91 1042.64,-403.19"/>
    </edge>
    <edge id=":49_0" function="internal">
        <lane id=":49_0_0" index="0" speed="50.00" length="0.28" width="3.60" shape="1017.46,-411.76 1017.38,-411.81"/>
        <lane id=":49_0_1" index="1" speed="50.00" length="0.28" width="3.60" shape="1019.50,-414.73 1019.26,-414.88"/>
        <lane id=":49_0_2" index="2" speed="50.00" length="0.28" width="3.60" shape="1021.54,-417.70 1021.14,-417.95"/>
    </edge>
    <edge id=":5_0" function="internal">
        <lane id=":5_0_0" index="0" speed="50.00" length="0.28" width="3.60" shape="877.03,474.27 877.13,474.25"/>
        <lane id=":5_0_1" index="1" speed="50.00" length="0.28" width="3.60" shape="877.88,477.77 878.15,477.70"/>
        <lane id=":5_0_2" index="2" speed="50.00" length="0.28" width="3.60" shape="878.72,481.28 879.17,481.15"/>
    </edge>
    <edge id=":50_0" function="internal">
        <lane id=":50_0_0" index="0" speed="50.00" length="0.28" width="3.60" shape="995.54,-425.19 995.46,-425.24"/>
        <lane id=":50_0_1" index="1" speed="50.00" length="0.28" width="3.60" shape="997.42,-428.26 997.18,-428.40"/>
        <lane id=":50_0_2" index="2" speed="50.00" length="0.28" width="3.60" shape="999.30,-431.33 998.89,-431.56"/>
    </edge>
    <edge id=":51_0" function="internal">
        <lane id=":51_0_0" index="0" speed="50.00" length="0.28" width="3.60" shape="972.95,-437.46 972.87,-437.50"/>
        <lane id=":51_0_1" index="1" speed="50.00" length="0.28" width="3.60" shape="974.67,-440.62 974.42,-440.75"/>